LAMMPS (24 Jan 2020)
#-------------------------VARIABLES DEFINITION----------------------------
variable latparam equal 3.615
variable ftemp equal 50
variable ltemp equal 2000

#-----------------------INITIALIZATION---------------------
units           metal
dimension       3
boundary        p p p
atom_style      atomic

#-----------------------ATOM DEFINITION----------------------
lattice         fcc 3.615
Lattice spacing in x,y,z = 3.615 3.615 3.615
region         whole block 0 5 0 5 0 5
create_box     2 whole
Created orthogonal box = (0 0 0) to (18.075 18.075 18.075)
lattice         fcc 3.615 orient x 1 0 0 orient y 0 1 0 orient z 0 0 1
Lattice spacing in x,y,z = 3.615 3.615 3.615
create_atoms   1 region whole
Created 500 atoms
set            region whole type/fraction 2 0.36 23984
  179 settings made for type/fraction

#-----------------------FORCE FIELDS-------------------------
pair_style      eam/fs
pair_coeff      * * Cu-Zr_2.eam.fs Cu Zr

#-----------------------SETTINGS--------------------------------
neighbor 0.5 bin
neigh_modify every 5 delay 0 check yes

#-----------------------HEATING,QUENCHING,EQUILIBRATION----------
reset_timestep 0
timestep 0.001
thermo 5000

velocity all create 50 825577 dist gaussian

dump 1 all custom 265000 CuZr_amorphous_*.lammps id type x y z
dump_modify 1 format line "%d %d %g %g %g"

compute Rdf all rdf 200 * * cutoff 5.0
fix frdf all ave/time 1 1 265000 c_Rdf[*] file CuZr_amorphous_rdf.txt mode vector

compute Rdfij all rdf 200 1 1 2 2 1 2 cutoff 5.0
fix frdfij all ave/time 1 1 265000 c_Rdfij[*] file CuZr_amorphous_rdfij.txt mode vector

fix 1 all nvt temp 50 50 1.0 drag 0.2
run 10000
  update every 5 steps, delay 0 steps, check yes
Step Temp E_pair E_mol TotEng Press
0           50   -1859.7817            0   -1856.5566    584018.69
Loop time of 14.244 on 1 procs for 10000 steps with 500 atoms

unfix 1

fix 1 all npt temp 50 2000 4.00 iso 0 0 1 drag 0.2
run 30000
Step Temp E_pair E_mol TotEng Press Volume
10000    50.404026   -1915.7205            0   -1912.4694    599522.77    5905.2042
Loop time of 34.8822 on 1 procs for 30000 steps with 500 atoms

unfix 1

fix 1 all npt temp 2000 2000 1.0 iso 0 0 1 drag 0.2
run 10000
Step Temp E_pair E_mol TotEng Press Volume
40000    894.49454   -2151.3476            0    -2093.652    9245.8657    8106.4843
Loop time of 11.3606 on 1 procs for 10000 steps with 500 atoms

unfix 1

fix 1 all npt temp 2000 50 4.00 iso 0 0 1 drag 0.2
run 195000
Step Temp E_pair E_mol TotEng Press Volume
50000    1977.8855   -2040.6266            0   -1913.0513   -2659.6458    8721.0883
Averages over the last 20 of 40 rows, steps 150000 to 245000:
Temp E_pair E_mol TotEng Press Volume
612.027 -2184.11 0 -2144.64 -181.778 8068.35
Loop time of 215.495 on 1 procs for 195000 steps with 500 atoms

unfix 1

fix 1 all npt temp 50 50 1.0 iso 0 0 1 drag 0.2
run 20000
Step Temp E_pair E_mol TotEng Press Volume
245000    140.55107   -2223.4112            0   -2214.3456   -2159.3318    7947.5306
Loop time of 21.6553 on 1 procs for 20000 steps with 500 atoms

unfix 1

uncompute Rdf
unfix frdf
uncompute Rdfij
unfix frdfij
undump 1

#------------------------SIMULATION DONE--------------------
print "All done"
All done
