LAMMPS (24 Jan 2020)
#-------------------------VARIABLES DEFINITION----------------------------
variable latparam equal 3.615
variable ftemp equal 300
variable ltemp equal 2000

#-----------------------INITIALIZATION---------------------
units           metal
dimension       3
boundary        p p p
atom_style      atomic

#-----------------------ATOM DEFINITION----------------------
lattice         fcc 3.615
Lattice spacing in x,y,z = 3.615 3.615 3.615
region         whole block 0 5 0 5 0 5
create_box     2 whole
Created orthogonal box = (0 0 0) to (18.075 18.075 18.075)
lattice         fcc 3.615 orient x 1 0 0 orient y 0 1 0 orient z 0 0 1
Lattice spacing in x,y,z = 3.615 3.615 3.615
create_atoms   1 region whole
Created 500 atoms

#-----------------------FORCE FIELDS-------------------------
pair_style      eam/fs
pair_coeff      * * Cu-Zr_2.eam.fs Cu Zr

#-----------------------SETTINGS--------------------------------
neighbor 0.5 bin
neigh_modify every 5 delay 0 check yes

#-----------------------HEATING,QUENCHING,EQUILIBRATION----------
reset_timestep 0
timestep 0.001
thermo 5000

velocity all create 300 825577 dist gaussian

dump 1 all custom 265000 Cu_*.lammps id type x y z
dump_modify 1 format line "%d %d %g %g %g"

compute Rdf all rdf 200 * * cutoff 5.0
fix frdf all ave/time 1 1 265000 c_Rdf[*] file Cu_rdf.txt mode vector

fix 1 all nvt temp 300 300 1.0 drag 0.2
run 10000
  update every 5 steps, delay 0 steps, check yes
Step Temp E_pair E_mol TotEng Press
0          300   -1640.5247            0   -1621.1745    31374.152
Loop time of 12.9041 on 1 procs for 10000 steps with 500 atoms

unfix 1

fix 1 all npt temp 300 2000 4.00 iso 0 0 1 drag 0.2
run 30000
Step Temp E_pair E_mol TotEng Press Volume
10000    315.95769   -1622.1448            0   -1601.7653    42199.165    5905.2042
Loop time of 39.9916 on 1 procs for 30000 steps with 500 atoms

unfix 1

fix 1 all npt temp 2000 2000 1.0 iso 0 0 1 drag 0.2
run 10000
Step Temp E_pair E_mol TotEng Press Volume
40000    822.93386   -1576.7448            0   -1523.6649   -20063.823    6304.9594
Loop time of 13.2193 on 1 procs for 10000 steps with 500 atoms

unfix 1

fix 1 all npt temp 2000 300 4.00 iso 0 0 1 drag 0.2
run 195000
Step Temp E_pair E_mol TotEng Press Volume
50000    1724.2021   -1439.8308            0   -1328.6183     8358.511    6641.2501
Averages over the last 20 of 40 rows, steps 150000 to 245000:
Temp E_pair E_mol TotEng Press Volume
784.682 -1530.84 0 -1480.22 604.193 6337.22
Loop time of 246.203 on 1 procs for 195000 steps with 500 atoms

unfix 1

fix 1 all npt temp 300 300 1.0 iso 0 0 1 drag 0.2
run 20000
Step Temp E_pair E_mol TotEng Press Volume
245000    365.68603   -1570.4067            0   -1546.8197   -809.83925    6237.0975
Loop time of 25.4008 on 1 procs for 20000 steps with 500 atoms

unfix 1

uncompute Rdf
unfix frdf
undump 1

#------------------------SIMULATION DONE--------------------
print "All done"
All done
